Version 4
SHEET 1 1472 984
WIRE 816 -432 736 -432
WIRE 1072 -432 880 -432
WIRE 512 -416 448 -416
WIRE 816 -400 736 -400
WIRE 1072 -400 1072 -432
WIRE 1104 -400 1072 -400
WIRE 1216 -400 1168 -400
WIRE 1104 -368 976 -368
WIRE -352 -272 -352 -336
WIRE -224 -272 -224 -336
WIRE -128 -272 -128 -336
WIRE -16 -272 -16 -336
WIRE 816 -272 736 -272
WIRE 976 -272 976 -368
WIRE 976 -272 880 -272
WIRE 816 -256 496 -256
WIRE 816 -240 784 -240
WIRE -352 -144 -352 -192
WIRE -224 -144 -224 -192
WIRE -128 -144 -128 -192
WIRE -16 -144 -16 -192
WIRE 560 -128 544 -128
WIRE 784 -112 784 -240
WIRE -352 -32 -352 -64
WIRE 48 32 -32 32
WIRE 208 32 112 32
WIRE 496 48 496 -256
WIRE 496 48 432 48
WIRE 992 48 496 48
WIRE 48 64 -32 64
WIRE -352 80 -352 48
WIRE 992 144 992 48
WIRE 1056 144 992 144
WIRE 1216 144 1120 144
WIRE 1056 176 992 176
WIRE 48 288 -32 288
WIRE 224 288 112 288
WIRE 992 304 992 176
WIRE 992 304 448 304
WIRE 48 320 -32 320
WIRE 544 400 528 400
WIRE 768 544 768 416
WIRE 800 544 768 544
WIRE 976 544 864 544
WIRE 496 560 496 48
WIRE 800 560 496 560
WIRE 800 576 736 576
WIRE 976 608 976 544
WIRE 1184 608 976 608
WIRE 1296 608 1248 608
WIRE 1184 640 976 640
WIRE 800 688 688 688
WIRE 976 688 976 640
WIRE 976 688 864 688
WIRE 800 720 736 720
WIRE 416 848 368 848
WIRE 736 864 736 720
WIRE 736 864 640 864
FLAG -224 -336 A0
FLAG -128 -336 B1
FLAG -224 -144 0
FLAG -128 -144 0
FLAG -16 -144 0
FLAG -352 -144 0
FLAG -352 -336 A1
FLAG -16 -336 B0
FLAG -32 32 A1
FLAG -32 64 B1
FLAG -32 288 A0
FLAG -32 320 B0
FLAG 544 -128 B0
FLAG 736 -272 A0
FLAG 448 -416 B1
FLAG 736 -432 A1
FLAG 1216 -400 AbiggerB
IOPIN 1216 -400 Out
FLAG 1216 144 AeqB
IOPIN 1216 144 Out
FLAG 1296 608 AsmallerB
IOPIN 1296 608 Out
FLAG 688 688 B1
FLAG 368 848 A1
FLAG 528 400 A0
FLAG 736 576 B0
FLAG -352 -64 V1
FLAG 320 224 V1
FLAG 304 -32 V1
FLAG 656 -192 V1
FLAG 608 -480 V1
FLAG 640 336 V1
FLAG 512 784 V1
FLAG -352 80 0
FLAG 304 128 0
FLAG 320 384 0
FLAG 608 -320 0
FLAG 656 -32 0
FLAG 640 496 0
FLAG 512 944 0
SYMBOL Digital\\xor 96 -16 R0
SYMATTR InstName A1
SYMBOL Digital\\xor 96 240 R0
SYMATTR InstName A2
SYMBOL NOT4 304 48 R0
SYMATTR InstName X1
SYMBOL NOT4 320 304 R0
SYMATTR InstName X2
SYMBOL Digital\\and 848 -480 R0
SYMATTR InstName A3
SYMBOL Digital\\and 848 -320 R0
SYMATTR InstName A4
SYMBOL Digital\\and 832 496 R0
SYMATTR InstName A5
SYMBOL Digital\\and 832 640 R0
SYMATTR InstName A6
SYMBOL voltage -224 -288 R0
WINDOW 3 -19 -251 Left 2
WINDOW 123 0 0 Left 0
WINDOW 39 0 0 Left 0
SYMATTR InstName V1
SYMATTR Value PULSE(1 0 0 1N 1N 4M 8M)
SYMBOL voltage -128 -288 R0
WINDOW 3 -118 -220 Left 2
WINDOW 123 0 0 Left 0
WINDOW 39 0 0 Left 0
SYMATTR InstName V2
SYMATTR Value PULSE(1 0 0 1N 1N 2M 4M)
SYMBOL voltage -352 -288 R0
WINDOW 3 107 -282 Left 2
WINDOW 123 0 0 Left 0
WINDOW 39 0 0 Left 0
SYMATTR InstName V3
SYMATTR Value PULSE(1 0 0 1N 1N 8M 16M)
SYMBOL voltage -16 -288 R0
WINDOW 3 -227 -187 Left 2
WINDOW 123 0 0 Left 0
WINDOW 39 0 0 Left 0
SYMATTR InstName V4
SYMATTR Value PULSE(1 0 0 1N 1N 1M 2M)
SYMBOL Digital\\and 1088 96 R0
SYMATTR InstName A7
SYMBOL NOT4 656 -112 R0
SYMATTR InstName X3
SYMBOL Digital\\or 1136 -448 R0
SYMATTR InstName A8
SYMBOL Digital\\or 1216 560 R0
SYMATTR InstName A9
SYMBOL NOT4 608 -400 R0
SYMATTR InstName X4
SYMBOL NOT4 640 416 R0
SYMATTR InstName X5
SYMBOL NOT4 512 864 R0
SYMATTR InstName X6
SYMBOL voltage -352 -48 R0
WINDOW 123 0 0 Left 0
WINDOW 39 0 0 Left 0
SYMATTR InstName V5
SYMATTR Value 1
TEXT -386 968 Left 2 !.tran 16M
