Version 4
SHEET 1 1332 1340
WIRE -752 -384 -752 -432
WIRE -192 -176 -304 -176
WIRE 96 -176 -192 -176
WIRE 432 -160 320 -160
WIRE 496 -160 432 -160
WIRE -768 -128 -768 -160
WIRE -768 -112 -768 -128
WIRE 496 -96 496 -160
WIRE 576 -96 496 -96
WIRE 720 -96 640 -96
WIRE 576 -80 464 -80
WIRE 576 -64 384 -64
WIRE -192 -32 -192 -176
WIRE 464 -32 -192 -32
WIRE -304 -16 -304 -176
WIRE -768 32 -768 -32
WIRE 464 80 464 -32
WIRE 576 80 464 80
WIRE 720 80 640 80
WIRE -304 96 -304 64
WIRE 576 96 464 96
WIRE 96 112 -80 112
WIRE 576 112 448 112
WIRE 384 128 384 -64
WIRE 384 128 320 128
WIRE 448 128 448 112
WIRE 448 128 384 128
WIRE -448 160 -448 128
WIRE -128 160 -304 160
WIRE -80 160 -80 112
WIRE -80 160 -128 160
WIRE -448 272 -448 240
WIRE 432 304 432 -160
WIRE 592 304 432 304
WIRE 720 304 656 304
WIRE 592 320 480 320
WIRE -304 336 -304 160
WIRE -128 336 -128 160
WIRE 592 336 -128 336
WIRE -128 464 -128 336
WIRE 592 464 -128 464
WIRE 720 464 656 464
WIRE 592 480 480 480
WIRE -192 496 -192 -32
WIRE 592 496 -192 496
WIRE -176 624 -288 624
WIRE 112 624 -176 624
WIRE 448 640 336 640
WIRE 512 640 448 640
WIRE 512 704 512 640
WIRE 592 704 512 704
WIRE 736 704 656 704
WIRE 592 720 480 720
WIRE 592 736 400 736
WIRE -176 768 -176 624
WIRE 480 768 -176 768
WIRE -288 784 -288 624
WIRE 480 880 480 768
WIRE 592 880 480 880
WIRE 736 880 656 880
WIRE -288 896 -288 864
WIRE 592 896 480 896
WIRE 112 912 -64 912
WIRE 592 912 464 912
WIRE 400 928 400 736
WIRE 400 928 336 928
WIRE 464 928 464 912
WIRE 464 928 400 928
WIRE -112 960 -288 960
WIRE -64 960 -64 912
WIRE -64 960 -112 960
WIRE 448 1104 448 640
WIRE 608 1104 448 1104
WIRE 736 1104 672 1104
WIRE 608 1120 496 1120
WIRE -288 1136 -288 960
WIRE -112 1136 -112 960
WIRE 608 1136 -112 1136
WIRE -112 1264 -112 1136
WIRE 608 1264 -112 1264
WIRE 736 1264 672 1264
WIRE 608 1280 496 1280
WIRE -176 1296 -176 768
WIRE 608 1296 -176 1296
FLAG 192 -240 v1
FLAG 192 48 v1
FLAG -448 128 v1
FLAG -304 96 0
FLAG -304 416 0
FLAG -448 272 0
FLAG 192 -80 0
FLAG 192 208 0
FLAG 720 -96 d0
IOPIN 720 -96 Out
FLAG 720 80 d1
IOPIN 720 80 Out
FLAG 720 304 d2
IOPIN 720 304 Out
FLAG 720 464 d3
IOPIN 720 464 Out
FLAG -768 -128 v3
FLAG -768 32 0
FLAG -752 -432 v3not
FLAG -672 -256 0
FLAG -832 -256 v1
FLAG 208 560 v1
FLAG 208 848 v1
FLAG -288 896 0
FLAG -288 1216 0
FLAG 208 720 0
FLAG 208 1008 0
FLAG 736 704 d4
IOPIN 736 704 Out
FLAG 736 880 d5
IOPIN 736 880 Out
FLAG 736 1104 d6
IOPIN 736 1104 Out
FLAG 736 1264 d7
IOPIN 736 1264 Out
FLAG 464 -80 v3not
FLAG 464 96 v3not
FLAG 480 320 v3not
FLAG 480 480 v3not
FLAG 480 720 v3
FLAG 480 896 v3
FLAG 496 1120 v3
FLAG 496 1280 v3
SYMBOL Digital\\and 608 -144 R0
SYMATTR InstName A1
SYMBOL Digital\\and 608 32 R0
SYMATTR InstName A2
SYMBOL Digital\\and 624 256 R0
SYMATTR InstName A3
SYMBOL Digital\\and 624 416 R0
SYMATTR InstName A4
SYMBOL NOT4 192 -160 R0
SYMATTR InstName X1
SYMBOL NOT4 192 128 R0
SYMATTR InstName X2
SYMBOL voltage -304 -32 R0
WINDOW 123 0 0 Left 0
WINDOW 39 0 0 Left 0
SYMATTR InstName V1
SYMATTR Value PULSE(1 0 0 1n 1n 1m 2m)
SYMBOL voltage -304 320 R0
WINDOW 123 0 0 Left 0
WINDOW 39 0 0 Left 0
SYMATTR InstName V2
SYMATTR Value PULSE(1 0 0 1n 1n 2m 4m)
SYMBOL voltage -448 144 R0
WINDOW 123 0 0 Left 0
WINDOW 39 0 0 Left 0
SYMATTR InstName V3
SYMATTR Value 1
SYMBOL voltage -768 -128 R0
WINDOW 123 0 0 Left 0
WINDOW 39 0 0 Left 0
SYMATTR InstName V4
SYMATTR Value PULSE(1 0 0 1n 2n 4m 8m)
SYMBOL NOT4 -752 -256 R270
SYMATTR InstName X3
SYMBOL Digital\\and 624 656 R0
SYMATTR InstName A5
SYMBOL Digital\\and 624 832 R0
SYMATTR InstName A6
SYMBOL Digital\\and 640 1056 R0
SYMATTR InstName A7
SYMBOL Digital\\and 640 1216 R0
SYMATTR InstName A8
SYMBOL NOT4 208 640 R0
SYMATTR InstName X4
SYMBOL NOT4 208 928 R0
SYMATTR InstName X5
SYMBOL voltage -288 768 R0
WINDOW 123 0 0 Left 0
WINDOW 39 0 0 Left 0
SYMATTR InstName V5
SYMATTR Value PULSE(1 0 0 1n 1n 1m 2m)
SYMBOL voltage -288 1120 R0
WINDOW 123 0 0 Left 0
WINDOW 39 0 0 Left 0
SYMATTR InstName V6
SYMATTR Value PULSE(1 0 0 1n 1n 2m 4m)
TEXT -482 540 Left 2 !.tran 8m
