Version 4
SHEET 1 880 680
WIRE 112 -32 -96 -32
WIRE -96 32 -96 -32
WIRE 480 32 480 0
WIRE 176 112 176 48
WIRE -96 128 -96 112
WIRE 112 128 112 -32
WIRE 144 128 112 128
WIRE 272 144 208 144
WIRE 144 160 -96 160
WIRE 480 160 480 112
WIRE 480 160 432 160
WIRE -96 176 -96 160
WIRE -96 208 -96 176
WIRE 480 208 480 160
WIRE 176 240 176 176
WIRE -96 304 -96 288
WIRE 480 336 480 288
FLAG 272 144 out
IOPIN 272 144 Out
FLAG 176 48 vdd
FLAG 480 0 vdd
FLAG 176 240 vee
FLAG 480 336 vee
FLAG -96 128 0
FLAG -96 304 0
FLAG -96 176 in
FLAG -96 -32 ref
FLAG 432 160 0
SYMBOL OpAmps\\LT1001 176 80 R0
SYMATTR InstName U1
SYMBOL voltage -96 16 R0
WINDOW 123 0 0 Left 0
WINDOW 39 0 0 Left 0
SYMATTR InstName V1
SYMATTR Value 0
SYMBOL voltage -96 192 R0
WINDOW 123 0 0 Left 0
WINDOW 39 0 0 Left 0
SYMATTR InstName V2
SYMATTR Value SINE(0 5 50)
SYMBOL voltage 480 192 R0
WINDOW 123 0 0 Left 0
WINDOW 39 0 0 Left 0
SYMATTR InstName V3
SYMATTR Value 1
SYMBOL voltage 480 16 R0
WINDOW 123 0 0 Left 0
WINDOW 39 0 0 Left 0
SYMATTR InstName V4
SYMATTR Value 6
TEXT -144 424 Left 2 !.tran 0.1
