Version 4
SHEET 1 912 680
WIRE 208 -208 208 -240
WIRE 208 -32 208 -128
WIRE 208 64 208 48
WIRE 336 64 208 64
WIRE 208 80 208 64
WIRE -80 128 -240 128
WIRE 32 128 0 128
WIRE 48 128 32 128
WIRE 144 128 128 128
WIRE 208 208 208 176
WIRE 208 304 208 288
FLAG 208 -240 0
FLAG 208 304 0
FLAG 336 64 VOUT
FLAG -240 128 0
FLAG 32 128 x
SYMBOL npn 144 80 R0
SYMATTR InstName mynpn
SYMATTR Value mynpn
SYMBOL res 192 -48 R0
SYMATTR InstName R1
SYMATTR Value 2K
SYMBOL res 192 192 R0
SYMATTR InstName R2
SYMATTR Value 100
SYMBOL res 144 112 R90
WINDOW 0 0 56 VBottom 2
WINDOW 3 32 56 VTop 2
SYMATTR InstName R3
SYMATTR Value 10K
SYMBOL voltage 208 -112 R180
WINDOW 0 24 96 Left 2
WINDOW 3 24 16 Left 2
WINDOW 123 0 0 Left 0
WINDOW 39 0 0 Left 0
SYMATTR InstName V1
SYMATTR Value 20
SYMBOL voltage 16 128 R90
WINDOW 0 -32 56 VBottom 2
WINDOW 3 32 56 VTop 2
WINDOW 123 0 0 Left 0
WINDOW 39 0 0 Left 0
SYMATTR InstName V2
SYMATTR Value SINE(1 1 1k 0)
TEXT -260 328 Left 2 !.tran 0 2m 0 10n
TEXT -224 360 Left 2 !.model mynpn npn (BF = 150 VAF = 150 IS = 5f)
