Version 4
SHEET 1 1176 680
WIRE 384 -96 128 -96
WIRE 656 -96 416 -96
WIRE 128 0 128 -96
WIRE 160 0 128 0
WIRE 352 0 352 -224
WIRE 352 0 320 0
WIRE 416 0 416 -96
WIRE 448 0 416 0
WIRE 640 0 640 -240
WIRE 640 0 608 0
WIRE 160 48 -32 48
WIRE 384 48 384 -96
WIRE 384 48 336 48
WIRE 448 48 384 48
WIRE 656 48 656 -96
WIRE 656 48 624 48
WIRE -32 128 -32 48
WIRE 240 144 240 96
WIRE 528 144 528 96
WIRE 528 144 240 144
WIRE 240 176 240 144
WIRE -32 240 -32 208
FLAG -32 240 0
FLAG 352 -224 half
IOPIN 352 -224 Out
FLAG 640 -240 quarter
IOPIN 640 -240 Out
FLAG 240 176 reset
IOPIN 240 176 In
SYMBOL voltage -32 112 R0
WINDOW 123 0 0 Left 0
WINDOW 39 0 0 Left 0
SYMATTR InstName V1
SYMATTR Value PULSE(0 5 0 1n 1n 10m 20m)
SYMBOL Digital\\dflop 240 -48 R0
SYMATTR InstName A1
SYMBOL Digital\\dflop 528 -48 R0
SYMATTR InstName A2
TEXT 88 296 Left 2 !.tran 0 0.2 20m
