Version 4
SHEET 1 1424 1064
WIRE 560 -80 560 -144
WIRE 560 -80 224 -80
WIRE 864 -80 560 -80
WIRE -208 -64 -208 -160
WIRE 224 0 224 -80
WIRE 864 16 864 -80
WIRE 544 80 272 80
WIRE 1280 96 912 96
WIRE -208 112 -208 64
WIRE -448 144 -448 80
WIRE -352 144 -352 80
WIRE -208 144 -208 112
WIRE 224 160 224 96
WIRE 864 176 864 112
WIRE 144 240 96 240
WIRE 176 240 144 240
WIRE -448 256 -448 224
WIRE -352 256 -352 224
WIRE -208 256 -208 224
WIRE 768 256 704 256
WIRE 816 256 768 256
WIRE 144 336 144 240
WIRE 768 352 768 256
WIRE 64 384 32 384
WIRE 176 384 160 384
WIRE 688 400 640 400
WIRE 800 400 784 400
WIRE 32 416 32 384
WIRE 32 416 -48 416
WIRE 176 432 176 384
WIRE 224 432 224 256
WIRE 224 432 176 432
WIRE 384 432 224 432
WIRE 544 432 544 80
WIRE 544 432 512 432
WIRE 640 432 640 400
WIRE 640 432 544 432
WIRE 800 432 800 400
WIRE 864 432 864 272
WIRE 864 432 800 432
WIRE 1088 432 864 432
WIRE 1280 432 1280 96
WIRE 1280 432 1216 432
WIRE 1392 432 1280 432
WIRE 32 464 32 416
WIRE 64 464 32 464
WIRE 176 464 176 432
WIRE 176 464 160 464
WIRE 640 480 640 432
WIRE 688 480 640 480
WIRE 800 480 800 432
WIRE 800 480 784 480
WIRE 224 592 224 432
WIRE 864 592 864 432
WIRE 768 608 768 528
WIRE 768 608 720 608
WIRE 816 608 768 608
WIRE 144 672 144 512
WIRE 144 672 0 672
WIRE 176 672 144 672
WIRE 864 752 864 688
WIRE 224 768 224 688
WIRE 1280 768 1280 432
WIRE 1280 768 912 768
WIRE 544 784 544 432
WIRE 544 784 272 784
WIRE 224 928 224 864
WIRE 560 928 224 928
WIRE 864 928 864 848
WIRE 864 928 560 928
WIRE 560 976 560 928
FLAG 560 -144 1
FLAG 560 976 0
FLAG 1392 432 q
FLAG -48 416 d
FLAG 96 240 clk
FLAG 0 672 clkn
FLAG -448 256 0
FLAG -352 256 0
FLAG -208 256 0
FLAG 432 464 0
FLAG 1136 464 0
FLAG -176 16 0
FLAG -240 16 1
FLAG -448 80 1
FLAG -352 80 d
FLAG -208 -160 clkn
FLAG -208 112 clk
FLAG 720 608 clk
FLAG 704 256 clkn
FLAG 432 400 1
FLAG 1136 400 1
SYMBOL pmos4 64 512 R270
WINDOW 0 -57 1 Left 2
WINDOW 3 -76 47 Left 2
SYMATTR InstName M3
SYMBOL pmos4 688 528 R270
WINDOW 0 -41 42 Left 2
WINDOW 3 -54 105 Left 2
SYMATTR InstName M6
SYMBOL NOT4 448 448 R0
SYMATTR InstName X1
SYMBOL NOT4 1152 448 R0
SYMATTR InstName X2
SYMBOL nmos4 176 592 R0
SYMATTR InstName M8
SYMBOL nmos4 64 336 M90
WINDOW 0 -65 15 Left 2
WINDOW 3 -70 60 Left 2
SYMATTR InstName M10
SYMBOL nmos4 688 352 M90
WINDOW 0 -65 19 Left 2
WINDOW 3 -85 62 Left 2
SYMATTR InstName M11
SYMBOL nmos4 816 688 M180
SYMATTR InstName M12
SYMBOL nmos4 912 848 R180
SYMATTR InstName M13
SYMBOL voltage -352 128 R0
WINDOW 3 -57 171 Left 2
WINDOW 123 0 0 Left 0
WINDOW 39 0 0 Left 0
SYMATTR Value PULSE(0 1 0.2m 1n 1n 3.4m 6.9m)
SYMATTR InstName V1
SYMBOL voltage -208 128 R0
WINDOW 3 -194 203 Left 2
WINDOW 123 0 0 Left 0
WINDOW 39 0 0 Left 0
SYMATTR Value PULSE(1 0 0 1n 1n 5m 10m)
SYMATTR InstName V2
SYMBOL voltage -448 128 R0
WINDOW 123 0 0 Left 0
WINDOW 39 0 0 Left 0
SYMATTR InstName V3
SYMATTR Value 1
SYMBOL NOT4 -192 0 R270
SYMATTR InstName X3
SYMBOL pmos4 272 0 M0
SYMATTR InstName M1
SYMBOL pmos4 176 160 R0
SYMATTR InstName M2
SYMBOL pmos4 912 16 M0
SYMATTR InstName M4
SYMBOL pmos4 816 176 R0
SYMATTR InstName M5
SYMBOL nmos4 272 864 R180
SYMATTR InstName M7
TEXT -416 376 Left 2 !.tran 400m
