Version 4
SHEET 1 1216 680
WIRE -592 -144 -592 -208
WIRE -464 -144 -464 -208
WIRE 256 -64 144 -64
WIRE 512 -48 432 -48
WIRE 864 -48 752 -48
WIRE 256 -32 144 -32
WIRE 1120 -32 1040 -32
WIRE -592 -16 -592 -64
WIRE -464 -16 -464 -64
WIRE 864 -16 752 -16
WIRE -464 112 -464 48
WIRE 864 192 752 192
WIRE 256 208 144 208
WIRE 1120 208 992 208
WIRE 512 224 384 224
WIRE 864 224 752 224
WIRE -464 240 -464 192
WIRE 256 240 144 240
WIRE -448 400 -448 352
WIRE 848 464 768 464
WIRE 1088 480 976 480
WIRE 848 496 768 496
WIRE -448 528 -448 480
FLAG -592 -208 Vcc
FLAG -464 240 0
FLAG -464 -16 0
FLAG -592 -16 0
FLAG -464 -208 a
FLAG -464 48 b
FLAG 144 -64 a
FLAG 144 -32 b
FLAG 144 208 a
FLAG 144 240 b
FLAG 304 -112 Vcc
FLAG 304 160 Vcc
FLAG 304 16 0
FLAG 304 288 0
FLAG 512 224 and1
FLAG 512 -48 xor1
FLAG 752 -48 xor1
FLAG 752 -16 c
FLAG 912 -96 Vcc
FLAG 912 32 0
FLAG 1120 -32 SUM
FLAG 752 192 xor1
FLAG 752 224 c
FLAG 912 144 Vcc
FLAG 912 272 0
FLAG 1120 208 and2
FLAG -448 528 0
FLAG -448 352 c
FLAG 768 496 and1
FLAG 768 464 and2
FLAG 1088 480 CARRY
FLAG 912 416 Vcc
FLAG 912 544 0
SYMBOL XOR_GATE 256 -32 R0
SYMATTR InstName X1
SYMBOL AND_GATE1 208 240 R0
SYMATTR InstName X2
SYMBOL voltage -464 -160 R0
WINDOW 123 0 0 Left 0
WINDOW 39 0 0 Left 0
SYMATTR InstName V1
SYMATTR Value PULSE(0 1 0 1n 1n 1m 2m)
SYMBOL voltage -464 96 R0
WINDOW 123 0 0 Left 0
WINDOW 39 0 0 Left 0
SYMATTR InstName V2
SYMATTR Value PULSE(0 1 0 1n 1n 2m 4m)
SYMBOL voltage -592 -160 R0
WINDOW 123 0 0 Left 0
WINDOW 39 0 0 Left 0
SYMATTR InstName V3
SYMATTR Value 1
SYMBOL XOR_GATE 864 -16 R0
SYMATTR InstName X3
SYMBOL AND_GATE1 816 224 R0
SYMATTR InstName X4
SYMBOL or_gate1 816 512 R0
SYMATTR InstName X5
SYMBOL voltage -448 384 R0
WINDOW 123 0 0 Left 0
WINDOW 39 0 0 Left 0
SYMATTR InstName V4
SYMATTR Value PULSE(0 1 0 1n 1n 4m 8m)
TEXT -624 264 Left 2 !.tran 12M
TEXT -72 -136 Left 2 ;FULL ADDER
