Version 4
SHEET 1 880 680
WIRE -96 0 -144 0
WIRE 16 0 -16 0
WIRE -144 80 -144 0
WIRE 16 80 16 0
WIRE -144 224 -144 160
WIRE -32 224 -144 224
WIRE 16 224 16 144
WIRE 16 224 -32 224
WIRE -32 304 -32 224
FLAG 16 0 n1
FLAG -32 304 0
SYMBOL cap 0 80 R0
SYMATTR InstName C1
SYMATTR Value 2.9335p
SYMBOL voltage -144 64 R0
WINDOW 123 0 0 Left 0
WINDOW 39 0 0 Left 0
SYMATTR InstName V1
SYMATTR Value 5
SYMBOL res 0 -16 R90
WINDOW 0 0 56 VBottom 2
WINDOW 3 32 56 VTop 2
SYMATTR InstName R1
SYMATTR Value 100k
TEXT -176 328 Left 2 !.tran 10m
TEXT 400 16 Left 2 !.ic V(n1)=0
