Version 4
SHEET 1 880 736
WIRE 112 -96 48 -96
WIRE 384 -80 288 -80
WIRE 112 -64 48 -64
WIRE 384 -48 272 -48
WIRE -784 112 -784 48
WIRE -608 112 -608 48
WIRE -480 112 -480 48
WIRE 112 176 32 176
WIRE 384 192 240 192
WIRE 112 208 32 208
WIRE 384 224 240 224
WIRE -784 240 -784 192
WIRE -608 240 -608 192
WIRE -480 240 -480 192
WIRE -480 368 -480 304
WIRE 112 384 32 384
WIRE 384 384 240 384
WIRE -480 496 -480 448
WIRE 96 560 32 560
WIRE 384 576 224 576
WIRE 96 592 32 592
WIRE 384 608 208 608
FLAG -608 48 Vcc
FLAG 160 -144 Vcc
FLAG -480 496 0
FLAG -480 240 0
FLAG -608 240 0
FLAG -480 48 a
FLAG 48 -96 a
FLAG 32 176 a
FLAG 32 384 a
FLAG 32 560 a
FLAG -480 304 b
FLAG 48 -64 b
FLAG 32 208 b
FLAG 32 592 b
FLAG 384 -80 XOR
FLAG 384 -48 XNOR
FLAG 384 192 AND
FLAG 384 224 NAND
FLAG 384 384 NOT
FLAG 384 576 OR
FLAG 384 608 NOR
FLAG -784 48 -Vcc
FLAG -784 240 0
FLAG 160 128 Vcc
FLAG 160 352 Vcc
FLAG 160 512 Vcc
FLAG 160 640 0
FLAG 160 416 0
FLAG 160 256 0
FLAG 160 -16 0
SYMBOL AND_GATE1 64 208 R0
SYMATTR InstName X1
SYMBOL NOT4 176 400 R0
SYMATTR InstName X2
SYMBOL or_gate1 64 608 R0
SYMATTR InstName X3
SYMBOL XOR_GATE 112 -64 R0
SYMATTR InstName X4
SYMBOL voltage -480 96 R0
WINDOW 123 0 0 Left 0
WINDOW 39 0 0 Left 0
SYMATTR InstName V1
SYMATTR Value PULSE(0 1 0 1n 1n 1m 2m)
SYMBOL voltage -480 352 R0
WINDOW 123 0 0 Left 0
WINDOW 39 0 0 Left 0
SYMATTR InstName V2
SYMATTR Value PULSE(0 1 0 1n 1n 2m 4m)
SYMBOL voltage -608 96 R0
WINDOW 123 0 0 Left 0
WINDOW 39 0 0 Left 0
SYMATTR InstName V3
SYMATTR Value 5
SYMBOL voltage -784 208 R180
WINDOW 123 0 0 Left 0
WINDOW 39 0 0 Left 0
SYMATTR InstName V4
SYMATTR Value 5
TEXT -642 520 Left 2 !.tran 10M
