Version 4
SHEET 1 880 680
WIRE 384 0 384 -32
WIRE 64 96 64 64
WIRE 160 96 160 64
WIRE 384 128 384 80
WIRE 432 128 384 128
WIRE 384 160 384 128
WIRE 64 208 64 176
WIRE 160 208 160 176
WIRE 336 240 320 240
FLAG 384 256 0
FLAG 384 -32 A
FLAG 64 64 A
FLAG 160 64 B
FLAG 432 128 V0
IOPIN 432 128 Out
FLAG 320 240 B
FLAG 160 208 0
FLAG 64 208 0
SYMBOL voltage 64 80 R0
WINDOW 123 0 0 Left 0
WINDOW 39 0 0 Left 0
SYMATTR InstName V1
SYMATTR Value 10
SYMBOL voltage 160 80 R0
WINDOW 123 0 0 Left 0
WINDOW 39 0 0 Left 0
SYMATTR InstName V2
SYMATTR Value 10
SYMBOL nmos 336 160 R0
SYMATTR InstName M1
SYMBOL res 368 -16 R0
SYMATTR InstName R1
SYMATTR Value 10K
SYMBOL NOT4 -96 0 R0
SYMATTR InstName X1
TEXT 32 304 Left 2 !.tran 20M
