Version 4
SHEET 1 880 680
WIRE 240 -128 -240 -128
WIRE 368 -128 304 -128
WIRE 240 -96 112 -96
WIRE -64 -32 -240 -32
WIRE 112 0 112 -96
WIRE 0 16 0 -16
WIRE 0 128 0 96
WIRE 32 128 0 128
WIRE 368 128 368 -128
WIRE 448 128 368 128
WIRE 560 128 512 128
WIRE 448 160 320 160
WIRE 96 256 96 224
WIRE 256 256 96 256
WIRE 320 256 320 160
WIRE -64 288 -64 -32
WIRE 256 288 -64 288
WIRE 96 464 96 256
FLAG 192 128 0
FLAG 0 -16 0
FLAG 560 128 out
IOPIN 560 128 Out
FLAG -240 -128 a
FLAG -240 -32 b
FLAG 96 464 s
SYMBOL Digital\\and 272 -176 R0
SYMATTR InstName A1
SYMBOL Digital\\and 288 208 R0
SYMATTR InstName A2
SYMBOL Digital\\or 480 80 R0
SYMATTR InstName A3
SYMBOL NOT4 112 128 R270
SYMATTR InstName X1
SYMBOL voltage 0 112 R180
WINDOW 123 0 0 Left 0
WINDOW 39 0 0 Left 0
SYMATTR InstName V4
SYMATTR Value 1
