Version 4
SHEET 1 880 680
WIRE 720 -80 720 -112
WIRE 720 32 720 0
WIRE 0 48 -80 48
WIRE 0 80 0 48
WIRE 64 80 0 80
WIRE 224 80 128 80
WIRE 496 96 448 96
WIRE 64 112 -80 112
WIRE -80 160 -80 112
FLAG -160 48 0
FLAG -160 160 0
FLAG 496 96 OUT
IOPIN 496 96 Out
FLAG 320 16 A
FLAG 320 176 0
FLAG 720 -112 A
FLAG 720 32 0
SYMBOL Digital\\and 96 32 R0
SYMATTR InstName A1
SYMBOL NOT4 320 96 R0
SYMATTR InstName X1
SYMBOL voltage -64 48 R90
WINDOW 0 -32 56 VBottom 2
WINDOW 3 32 56 VTop 2
WINDOW 123 0 0 Left 0
WINDOW 39 0 0 Left 0
SYMATTR InstName V1
SYMATTR Value PULSE(1 0 0 1N 1N 1M 2M)
SYMBOL voltage -64 160 R90
WINDOW 0 -32 56 VBottom 2
WINDOW 3 32 56 VTop 2
WINDOW 123 0 0 Left 0
WINDOW 39 0 0 Left 0
SYMATTR InstName V2
SYMATTR Value PULSE(1 0 0 1N 2N 2M 4M)
SYMBOL voltage 720 -96 R0
WINDOW 123 0 0 Left 0
WINDOW 39 0 0 Left 0
SYMATTR InstName V3
SYMATTR Value 1
TEXT -280 226 Left 2 !.tran 8M
