Version 4
SHEET 1 1804 916
WIRE 160 -688 160 -752
WIRE 144 -640 -864 -640
WIRE 1328 -640 224 -640
WIRE -592 -16 -592 -128
WIRE -176 96 -176 32
WIRE -208 112 -768 112
WIRE 368 128 -144 128
WIRE -592 144 -592 64
WIRE -208 144 -592 144
WIRE 992 144 864 144
WIRE 1120 144 1056 144
WIRE 1216 144 1120 144
WIRE 1696 144 1216 144
WIRE -992 160 -992 16
WIRE -592 160 -592 144
WIRE 368 160 368 128
WIRE 432 160 368 160
WIRE 592 160 496 160
WIRE 864 176 864 144
WIRE 864 176 816 176
WIRE 992 176 960 176
WIRE -176 192 -176 160
WIRE 432 192 288 192
WIRE 960 224 960 176
WIRE 1168 224 960 224
WIRE 288 256 288 192
WIRE 288 256 240 256
WIRE -176 272 -176 240
WIRE -992 288 -992 240
WIRE -864 288 -864 -640
WIRE -864 288 -992 288
WIRE -592 288 -592 240
WIRE -208 288 -592 288
WIRE -16 304 -144 304
WIRE 1120 304 1120 144
WIRE 1120 304 944 304
WIRE -208 320 -720 320
WIRE -992 336 -992 288
WIRE -592 336 -592 288
WIRE 288 368 288 256
WIRE 432 368 288 368
WIRE 608 368 496 368
WIRE -176 384 -176 336
WIRE 896 384 832 384
WIRE 944 384 944 304
WIRE 992 384 944 384
WIRE 1168 384 1168 224
WIRE 1168 384 1056 384
WIRE 1216 384 1168 384
WIRE 1328 384 1328 -640
WIRE 1328 384 1216 384
WIRE -16 400 -16 304
WIRE 432 400 -16 400
WIRE 896 416 896 384
WIRE 992 416 896 416
WIRE -992 448 -992 416
WIRE -768 448 -768 112
WIRE -768 448 -992 448
WIRE -720 448 -720 320
WIRE -720 448 -768 448
WIRE -992 464 -992 448
WIRE -592 528 -592 416
WIRE -992 560 -992 528
WIRE 672 624 672 576
WIRE 672 736 672 704
WIRE 208 768 208 720
WIRE 384 768 384 688
WIRE 208 896 208 848
WIRE 384 896 384 848
FLAG -592 528 0
FLAG -592 -128 VCC
FLAG -992 560 0
FLAG -992 16 VCC
FLAG 384 688 A
FLAG 688 96 A
FLAG 688 256 0
FLAG 384 896 0
FLAG 208 720 VCC
FLAG 208 896 0
FLAG 1216 144 Q
FLAG 1216 384 QN
FLAG 704 464 0
FLAG 704 304 A
FLAG 1696 144 OUT
IOPIN 1696 144 Out
FLAG -176 192 0
FLAG -176 384 0
FLAG -176 32 VCC
FLAG -176 240 VCC
FLAG 672 736 0
FLAG 672 576 CLK
FLAG 240 256 CLK
FLAG 208 -688 0
FLAG 160 -752 CLK
SYMBOL res -608 -32 R0
SYMATTR InstName R1
SYMATTR Value 5K
SYMBOL res -608 144 R0
SYMATTR InstName R2
SYMATTR Value 5K
SYMBOL res -608 320 R0
SYMATTR InstName R3
SYMATTR Value 5K
SYMBOL res -1008 144 R0
SYMATTR InstName R4
SYMATTR Value 1k
SYMBOL res -1008 320 R0
SYMATTR InstName R5
SYMATTR Value 10k
SYMBOL cap -1008 464 R0
SYMATTR InstName C1
SYMATTR Value 10n
SYMBOL Digital\\and 464 112 R0
SYMATTR InstName A1
SYMBOL Digital\\and 464 320 R0
SYMATTR InstName A2
SYMBOL Digital\\and 1024 96 R0
SYMATTR InstName A3
SYMBOL Digital\\and 1024 336 R0
SYMATTR InstName A4
SYMBOL NOT4 688 176 R0
SYMATTR InstName X1
SYMBOL NOT4 704 384 R0
SYMATTR InstName X2
SYMBOL OpAmps\\LT1001 -176 64 R0
SYMATTR InstName U1
SYMBOL OpAmps\\LT1001 -176 240 R0
SYMATTR InstName U2
SYMBOL voltage 384 752 R0
WINDOW 123 0 0 Left 0
WINDOW 39 0 0 Left 0
SYMATTR InstName V3
SYMATTR Value 1
SYMBOL voltage 208 752 R0
WINDOW 123 0 0 Left 0
WINDOW 39 0 0 Left 0
SYMATTR InstName V4
SYMATTR Value 5
SYMBOL voltage 672 608 R0
WINDOW 123 0 0 Left 0
WINDOW 39 0 0 Left 0
SYMATTR InstName V1
SYMATTR Value PULSE(1 0 0 1N 1N 1M 2M)
SYMBOL sw 240 -640 R90
SYMATTR InstName S1
SYMATTR Value SW1
TEXT -1024 584 Left 2 !;tran 8M
TEXT 432 72 Left 2 !.tran 8M
TEXT 1032 -1088 Left 2 !.MODEL SW1 SW(Ron=1M Roff=100Meg VT=5 vh=0)
