Version 4
SHEET 1 880 680
WIRE 208 16 208 -32
WIRE 272 16 208 16
WIRE 208 64 208 16
WIRE 160 80 96 80
WIRE 272 112 272 16
WIRE 272 112 208 112
WIRE 160 144 160 80
WIRE 256 160 208 160
WIRE 96 192 96 80
WIRE 96 192 -48 192
WIRE 256 192 256 160
WIRE 400 192 256 192
WIRE 256 224 256 192
WIRE 256 224 208 224
WIRE 288 272 208 272
WIRE 96 304 96 192
WIRE 160 304 96 304
WIRE 208 352 208 320
WIRE 288 352 288 272
WIRE 288 352 208 352
WIRE 208 432 208 352
FLAG 400 192 OUT
IOPIN 400 192 Out
FLAG -128 192 0
FLAG 208 -112 0
FLAG 208 432 0
SYMBOL pmos4 160 160 M180
SYMATTR InstName M1
SYMBOL nmos4 160 224 R0
SYMATTR InstName M2
SYMBOL voltage -32 192 R90
WINDOW 0 -32 56 VBottom 2
WINDOW 3 32 56 VTop 2
WINDOW 123 0 0 Left 0
WINDOW 39 0 0 Left 0
SYMATTR InstName V1
SYMATTR Value PULSE(1 0 0 1N 1N 1M 2M)
SYMBOL voltage 208 -16 R180
WINDOW 0 24 96 Left 2
WINDOW 3 24 16 Left 2
WINDOW 123 0 0 Left 0
WINDOW 39 0 0 Left 0
SYMATTR InstName V2
SYMATTR Value 1
TEXT -262 456 Left 2 !.tran 8M
