Version 4
SHEET 1 880 680
WIRE 176 80 176 0
WIRE 80 144 -16 144
FLAG 304 160 OUT
IOPIN 304 160 Out
FLAG 176 240 0
FLAG -96 144 0
FLAG 176 -80 0
SYMBOL NOT4 176 160 R0
SYMATTR InstName X1
SYMBOL voltage 176 16 R180
WINDOW 0 24 96 Left 2
WINDOW 3 24 16 Left 2
WINDOW 123 0 0 Left 0
WINDOW 39 0 0 Left 0
SYMATTR InstName V1
SYMATTR Value 1
SYMBOL voltage 0 144 R90
WINDOW 0 -32 56 VBottom 2
WINDOW 3 32 56 VTop 2
WINDOW 123 0 0 Left 0
WINDOW 39 0 0 Left 0
SYMATTR InstName V2
SYMATTR Value PULSE(0 1 0 1N 1N 1M 2M)
TEXT -216 264 Left 2 !.tran 8M
