Version 4
SHEET 1 880 680
WIRE -16 -32 -48 -32
WIRE 288 -32 64 -32
WIRE 176 -16 112 -16
WIRE -160 80 -304 80
WIRE -48 80 -48 -32
WIRE -48 80 -80 80
WIRE -304 112 -304 80
WIRE 112 112 112 64
WIRE -48 128 -48 80
WIRE 80 128 -48 128
WIRE 288 144 288 -32
WIRE 288 144 144 144
WIRE 80 160 -48 160
WIRE -48 208 -48 160
WIRE 112 240 112 176
WIRE -48 336 -48 288
WIRE 112 336 112 320
FLAG -304 112 0
FLAG -48 336 0
FLAG 176 -16 0
FLAG 112 336 0
SYMBOL OpAmps\\UniversalOpAmp 112 144 R0
SYMATTR InstName U1
SYMBOL voltage -48 192 R0
SYMATTR InstName V1
SYMATTR Value 1
SYMBOL res -64 64 R90
WINDOW 0 0 56 VBottom 2
WINDOW 3 32 56 VTop 2
SYMATTR InstName R1
SYMATTR Value 1k
SYMBOL res 80 -48 R90
WINDOW 0 0 56 VBottom 2
WINDOW 3 32 56 VTop 2
SYMATTR InstName R2
SYMATTR Value 9k
SYMBOL voltage 112 80 R180
WINDOW 0 24 96 Left 2
WINDOW 3 24 16 Left 2
SYMATTR InstName V2
SYMATTR Value 10
SYMBOL voltage 112 224 R0
SYMATTR InstName V3
SYMATTR Value 0
TEXT -328 360 Left 2 !.tran 1
TEXT -216 -136 Left 2 ;Vout=Vin (1 + R2/R1)
