Version 4
SHEET 1 1396 788
WIRE 416 -64 416 -96
WIRE 368 16 320 16
WIRE 912 48 912 0
WIRE 976 48 912 48
WIRE -128 96 -128 64
WIRE -32 96 -32 64
WIRE 64 96 64 64
WIRE 160 96 160 64
WIRE 416 96 416 32
WIRE 912 96 912 48
WIRE 864 112 800 112
WIRE 976 144 976 48
WIRE 976 144 912 144
WIRE 368 176 336 176
WIRE 864 176 864 112
WIRE 960 192 912 192
WIRE -128 208 -128 176
WIRE -32 208 -32 176
WIRE 64 208 64 176
WIRE 160 208 160 176
WIRE 416 224 416 192
WIRE 800 224 800 112
WIRE 800 224 416 224
WIRE 960 224 960 192
WIRE 1216 224 960 224
WIRE 1296 224 1216 224
WIRE 416 256 416 224
WIRE 416 256 304 256
WIRE 512 256 416 256
WIRE 960 256 960 224
WIRE 960 256 912 256
WIRE 1216 256 1216 224
WIRE 304 288 304 256
WIRE 512 288 512 256
WIRE 992 304 912 304
WIRE 800 336 800 224
WIRE 864 336 800 336
WIRE 256 368 224 368
WIRE 464 368 432 368
WIRE 912 384 912 352
WIRE 992 384 992 304
WIRE 992 384 912 384
WIRE 912 464 912 384
WIRE 320 592 320 560
WIRE 256 640 208 640
WIRE 448 656 384 656
WIRE 256 672 208 672
WIRE 320 768 320 720
FLAG -128 64 a
FLAG -32 64 b
FLAG 64 64 vdd
FLAG 160 64 1
FLAG 160 208 0
FLAG 64 208 0
FLAG -32 208 0
FLAG -128 208 0
FLAG 416 -96 vdd
FLAG 320 16 b
FLAG 336 176 a
FLAG 1296 224 out
FLAG 432 368 b
FLAG 224 368 a
FLAG 512 384 0
FLAG 304 384 0
FLAG 1216 320 0
FLAG 912 0 vdd
FLAG 912 464 0
FLAG 320 768 0
FLAG 208 640 a
FLAG 208 672 b
FLAG 320 560 vdd
FLAG 448 656 out1
SYMBOL voltage -128 80 R0
WINDOW 3 -22 156 Left 2
WINDOW 123 0 0 Left 0
WINDOW 39 0 0 Left 0
SYMATTR Value PULSE(5 0 0 1n 1n 2m 4m)
SYMATTR InstName V1
SYMBOL voltage -32 80 R0
WINDOW 3 -111 183 Left 2
WINDOW 123 0 0 Left 0
WINDOW 39 0 0 Left 0
SYMATTR Value PULSE(5 0 0 1n 1n 1m 2m)
SYMATTR InstName V2
SYMBOL voltage 64 80 R0
WINDOW 123 0 0 Left 0
WINDOW 39 0 0 Left 0
SYMATTR InstName V3
SYMATTR Value 5
SYMBOL voltage 160 80 R0
WINDOW 123 0 0 Left 0
WINDOW 39 0 0 Left 0
SYMATTR InstName V4
SYMATTR Value 1
SYMBOL pmos4 368 -64 R0
SYMATTR InstName M1
SYMBOL pmos4 368 96 R0
SYMATTR InstName M2
SYMBOL nmos4 256 288 R0
SYMATTR InstName M3
SYMBOL nmos4 464 288 R0
SYMATTR InstName M4
SYMBOL cap 1200 256 R0
SYMATTR InstName C1
SYMATTR Value 0.01n
SYMBOL NOT4 48 -112 R0
SYMATTR InstName X1
SYMBOL pmos4 864 192 M180
SYMATTR InstName M5
SYMBOL nmos4 864 256 R0
SYMATTR InstName M6
SYMBOL or_gate1 224 688 R0
SYMATTR InstName X2
TEXT -160 432 Left 2 !.tran 4m
