Version 4
SHEET 1 1992 1640
WIRE 32 -432 16 -432
WIRE 64 -432 32 -432
WIRE 192 -432 144 -432
WIRE -736 -400 -752 -400
WIRE -624 -400 -656 -400
WIRE -464 -400 -624 -400
WIRE -336 -400 -352 -400
WIRE -240 -400 -272 -400
WIRE -64 -400 -240 -400
WIRE 864 -336 816 -336
WIRE 976 -336 944 -336
WIRE 32 -320 32 -432
WIRE 80 -320 32 -320
WIRE -240 -304 -240 -400
WIRE -176 -304 -240 -304
WIRE 192 -304 192 -432
WIRE 192 -304 144 -304
WIRE 352 -304 192 -304
WIRE 528 -304 432 -304
WIRE 624 -304 528 -304
WIRE -624 -288 -624 -400
WIRE -560 -288 -624 -288
WIRE -64 -288 -64 -400
WIRE -64 -288 -112 -288
WIRE 80 -288 -64 -288
WIRE -464 -272 -464 -400
WIRE -464 -272 -496 -272
WIRE -448 -272 -464 -272
WIRE -352 -272 -352 -400
WIRE -352 -272 -368 -272
WIRE -336 -272 -352 -272
WIRE -240 -272 -256 -272
WIRE -176 -272 -240 -272
WIRE -864 -256 -896 -256
WIRE -752 -256 -752 -400
WIRE -752 -256 -800 -256
WIRE -736 -256 -752 -256
WIRE -624 -256 -672 -256
WIRE -560 -256 -624 -256
WIRE -624 -240 -624 -256
WIRE -240 -240 -240 -272
WIRE 528 -240 528 -304
WIRE 624 -240 624 -304
WIRE 976 -208 944 -208
WIRE 1216 -176 1216 -256
WIRE 528 -96 528 -176
WIRE 624 -96 624 -160
WIRE 864 -80 816 -80
WIRE 1216 -48 1216 -96
WIRE -976 32 -976 0
WIRE -656 32 -976 32
WIRE 992 64 944 64
WIRE -656 128 -656 32
WIRE -976 176 -976 32
WIRE -656 336 -656 208
WIRE -496 336 -656 336
WIRE -304 336 -432 336
WIRE -160 336 -304 336
WIRE -32 336 -160 336
WIRE 160 336 48 336
WIRE -304 352 -304 336
WIRE -656 416 -656 336
WIRE -1152 496 -1328 496
WIRE -976 496 -976 256
WIRE -976 496 -1088 496
WIRE -704 496 -976 496
WIRE -304 496 -304 432
WIRE -976 560 -976 496
WIRE 544 608 432 608
WIRE 752 608 624 608
WIRE -656 656 -656 512
WIRE -480 656 -656 656
WIRE -320 656 -416 656
WIRE -80 656 -240 656
WIRE 0 656 -80 656
WIRE -80 704 -80 656
WIRE -976 752 -976 640
WIRE -656 768 -656 656
WIRE 0 800 0 656
WIRE -80 848 -80 784
FLAG 112 -336 +9
FLAG 112 -272 -9
FLAG -64 -432 0
FLAG -624 -160 0
FLAG -528 -304 +9
FLAG -144 -320 +9
FLAG -144 -256 -9
FLAG -528 -240 -9
FLAG -240 -176 0
FLAG -896 -256 Audiorepresentation
FLAG 864 -208 0
FLAG 944 -80 0
FLAG 864 64 0
FLAG 976 -208 +9
FLAG 816 -80 -9
FLAG 992 64 Audiorepresentation
FLAG -464 -272 filter1
FLAG -64 -288 filter2
FLAG 816 -336 0
FLAG 976 -336 +12
FLAG 192 -304 ampx
FLAG 624 -96 0
FLAG 528 -96 0
FLAG 1216 -48 0
FLAG 1216 -256 hello_original
FLAG -304 496 0
FLAG -976 752 0
FLAG -656 848 0
FLAG -1328 496 0
FLAG -160 336 Vout
FLAG -976 0 +12
FLAG 0 880 0
FLAG 0 656 lightem
FLAG -80 848 0
FLAG 528 -304 light
FLAG 160 336 Vout_speaker
FLAG 752 608 speaker_out
FLAG 432 608 Vout_speaker
SYMBOL res 160 -448 R90
WINDOW 0 0 56 VBottom 2
WINDOW 3 32 56 VTop 2
SYMATTR InstName R3
SYMATTR Value 400k
SYMBOL res -80 -416 R270
WINDOW 0 32 56 VTop 2
WINDOW 3 0 56 VBottom 2
SYMATTR InstName R4
SYMATTR Value 10k
SYMBOL cap -800 -240 M270
WINDOW 0 32 32 VTop 2
WINDOW 3 -14 61 VLeft 2
SYMATTR InstName C4
SYMATTR Value 47n
SYMBOL cap -672 -272 R90
WINDOW 0 0 32 VBottom 2
WINDOW 3 32 32 VTop 2
SYMATTR InstName C5
SYMATTR Value 47n
SYMBOL res -640 -416 R90
WINDOW 0 0 56 VBottom 2
WINDOW 3 32 56 VTop 2
SYMATTR InstName R5
SYMATTR Value 100k
SYMBOL res -640 -256 R0
SYMATTR InstName R6
SYMATTR Value 100k
SYMBOL res -352 -288 R90
WINDOW 0 0 56 VBottom 2
WINDOW 3 32 56 VTop 2
SYMATTR InstName R7
SYMATTR Value 10k
SYMBOL cap -272 -416 R90
WINDOW 0 0 32 VBottom 2
WINDOW 3 32 32 VTop 2
SYMATTR InstName C6
SYMATTR Value 1n
SYMBOL cap -256 -240 R0
SYMATTR InstName C7
SYMATTR Value 1n
SYMBOL res -240 -288 R90
WINDOW 0 0 56 VBottom 2
WINDOW 3 32 56 VTop 2
SYMATTR InstName R8
SYMATTR Value 10k
SYMBOL voltage 960 -208 R90
WINDOW 0 -32 56 VBottom 2
WINDOW 3 32 56 VTop 2
WINDOW 123 0 0 Left 0
WINDOW 39 0 0 Left 0
SYMATTR InstName V1
SYMATTR Value 9
SYMBOL voltage 960 -80 R90
WINDOW 0 -32 56 VBottom 2
WINDOW 3 32 56 VTop 2
WINDOW 123 0 0 Left 0
WINDOW 39 0 0 Left 0
SYMATTR InstName V2
SYMATTR Value 9
SYMBOL voltage 960 64 R90
WINDOW 0 -32 56 VBottom 2
WINDOW 3 32 56 VTop 2
WINDOW 123 0 0 Left 0
WINDOW 39 0 0 Left 0
SYMATTR InstName V3
SYMATTR Value wavefile = "C:\Users\omer-\Desktop\sound\hellox.wav" chan=0
SYMBOL voltage 960 -336 R90
WINDOW 0 -32 56 VBottom 2
WINDOW 3 32 56 VTop 2
WINDOW 123 0 0 Left 0
WINDOW 39 0 0 Left 0
SYMATTR InstName V6
SYMATTR Value 12
SYMBOL voltage 624 -256 R0
WINDOW 123 0 0 Left 0
WINDOW 39 0 0 Left 0
SYMATTR InstName V4
SYMATTR Value 0
SYMBOL res 448 -320 R90
WINDOW 0 0 56 VBottom 2
WINDOW 3 32 56 VTop 2
SYMATTR InstName R1
SYMATTR Value 1k
SYMBOL diode 544 -176 R180
WINDOW 0 24 64 Left 2
WINDOW 3 24 0 Left 2
SYMATTR InstName LED
SYMATTR Value BPW34
SYMBOL voltage 1216 -192 R0
SYMATTR InstName V5
SYMATTR Value wavefile = "C:\Users\omer-\Desktop\sound\hello.wav" chan=0
SYMBOL OpAmps\\LM741 -528 -336 R0
SYMATTR InstName U1
SYMBOL OpAmps\\LM741 -144 -352 R0
SYMATTR InstName U2
SYMBOL OpAmps\\LM741 112 -368 R0
SYMATTR InstName U3
SYMBOL res -992 160 R0
SYMATTR InstName R20
SYMATTR Value 610k
SYMBOL res -992 544 R0
SYMATTR InstName R23
SYMATTR Value 390k
SYMBOL res -672 112 R0
SYMATTR InstName Rd1
SYMATTR Value 3.5k
SYMBOL res -672 752 R0
SYMATTR InstName R24
SYMATTR Value 2.16k
SYMBOL res -224 640 R90
WINDOW 0 0 56 VBottom 2
WINDOW 3 32 56 VTop 2
SYMATTR InstName Rgenerator1
SYMATTR Value 50
SYMBOL res -288 448 R180
WINDOW 0 36 76 Left 2
WINDOW 3 36 40 Left 2
SYMATTR InstName Rload1
SYMATTR Value 5k
SYMBOL cap -416 640 R90
WINDOW 0 0 32 VBottom 2
WINDOW 3 32 32 VTop 2
SYMATTR InstName C11
SYMATTR Value 1m
SYMBOL cap -432 320 R90
WINDOW 0 0 32 VBottom 2
WINDOW 3 32 32 VTop 2
SYMATTR InstName C12
SYMATTR Value 1m
SYMBOL cap -1088 480 R90
WINDOW 0 0 32 VBottom 2
WINDOW 3 32 32 VTop 2
SYMATTR InstName C13
SYMATTR Value 1m
SYMBOL nmos -704 416 R0
SYMATTR InstName M1
SYMATTR Value MyMOS
SYMBOL f 0 880 M180
WINDOW 0 24 80 Left 2
WINDOW 3 24 0 Left 2
SYMATTR InstName F3
SYMATTR Value V4 1
SYMBOL res -64 688 M0
SYMATTR InstName R25
SYMATTR Value 1k
SYMBOL voltage 64 336 R90
WINDOW 0 -32 56 VBottom 2
WINDOW 3 32 56 VTop 2
WINDOW 123 0 0 Left 0
WINDOW 39 0 0 Left 0
SYMATTR InstName V7
SYMATTR Value 3
SYMBOL res 640 592 R90
WINDOW 0 0 56 VBottom 2
WINDOW 3 32 56 VTop 2
SYMATTR InstName R2
SYMATTR Value 6
TEXT -1104 -136 Left 2 !.tran 1
TEXT -1184 -480 Left 2 ;Audio-Receiving Subsystem to Light-Emitting Subsystem
TEXT 408 176 Left 2 !.wave C:\\Users\\omer-\\Desktop\\sound\\hello_out.wav 16 44.1k V(Vout)
TEXT 304 264 Left 2 !.model BPW34 D (IS=1p RS=10 N=1.2 CJO=50p M=0.5 TT=0 IBL=0.5u)
TEXT 408 216 Left 2 !.wave C:\\Users\\omer-\\Desktop\\sound\\hello_outamp.wav 16 44.1k V(Vout_speaker)
TEXT 304 296 Left 2 !.model MyMOS NMOS (VTO=1 KP=0.1 LAMBDA=0.02)
TEXT 544 512 Left 2 ;SPEAKER
